If you want to run GEOS-Chem by yourself,  you need to set a symbol link to otool_data/surface_flux
